* 1N5227 3.6 Volt ±5% zener diode 
.model 1N5227 D(Is=1.242f Rs=1.137 Ikf=0 N=1 Xti=3 Eg=1.11 Cjo=210p M=.6063 
+ Vj=.75 Fc=.5 Isr=1.922n Nr=2 Bv=3.6 Ibv=13.987m Nbv=3.031
+ Ibvl=10.212m Nbvl=12.73 Tbv1=-555.56u)
* Motorola, 89-9-18, gjg


